SOLVER= INC_RANS
KIND_TURB_MODEL= SST
SST_OPTIONS= V2003m
MATH_PROBLEM= DIRECT
RESTART_SOL= YES
TIME_MARCHING= NO

INC_DENSITY_INIT= 1.225
INC_VELOCITY_INIT= ( 83.333333, 0.0, 0.0 )
INC_TEMPERATURE_INIT= 288.15
VISCOSITY_MODEL= CONSTANT_VISCOSITY
MU_CONSTANT= 1.7894E-5

REF_ORIGIN_MOMENT_X= 0.0
REF_ORIGIN_MOMENT_Y= 0.0
REF_ORIGIN_MOMENT_Z= 0.30
REF_LENGTH= 5.0
REF_AREA= 1.0

MARKER_HEATFLUX= ( car, 0.0, ground, 0.0 )
MARKER_FAR= ( inlet, outlet, farfield )
MARKER_SYM= ( symmetry )
SURFACE_MOVEMENT= MOVING_WALL
MARKER_MOVING= ( ground )
SURFACE_TRANSLATION_RATE= 83.333333 0.0 0.0
MARKER_PLOTTING= ( car )
MARKER_MONITORING= ( car )

NUM_METHOD_GRAD= WEIGHTED_LEAST_SQUARES
NUM_METHOD_GRAD_RECON= LEAST_SQUARES
CFL_NUMBER= 3.0
CFL_ADAPT= NO
CFL_ADAPT_PARAM= ( 0.5, 1.25, 0.5, 30.0 )
ITER= 200

LINEAR_SOLVER= FGMRES
LINEAR_SOLVER_INNER= BCGSTAB
LINEAR_SOLVER_PREC= LU_SGS
LINEAR_SOLVER_ERROR= 1E-5
LINEAR_SOLVER_ITER= 10

CONV_NUM_METHOD_FLOW= FDS
MUSCL_FLOW= YES
SLOPE_LIMITER_FLOW= VENKATAKRISHNAN
TIME_DISCRE_FLOW= EULER_IMPLICIT
CONV_NUM_METHOD_TURB= SCALAR_UPWIND
MUSCL_TURB= NO
SLOPE_LIMITER_TURB= VENKATAKRISHNAN
TIME_DISCRE_TURB= EULER_IMPLICIT

CONV_FIELD= DRAG
CONV_RESIDUAL_MINVAL= -12
CONV_STARTITER= 20
CONV_CAUCHY_ELEMS= 30
CONV_CAUCHY_EPS= 1E-4

MESH_FILENAME= w11_coarse.su2
MESH_FORMAT= SU2
TABULAR_FORMAT= CSV
SOLUTION_FILENAME= restart_coarse_moving
CONV_FILENAME= history_coarse_moving_final
RESTART_FILENAME= restart_coarse_moving_final
VOLUME_FILENAME= flow_coarse_moving_final
SURFACE_FILENAME= surface_coarse_moving_final
OUTPUT_WRT_FREQ= 100
SCREEN_WRT_FREQ_INNER= 25
SCREEN_OUTPUT= ( INNER_ITER, RMS_PRESSURE, RMS_VELOCITY-X, RMS_TKE, RMS_DISSIPATION, LIFT, DRAG, CFL_NUMBER )
HISTORY_OUTPUT= ( ITER, RMS_RES, AERO_COEFF, CFL_NUMBER )
VOLUME_OUTPUT= ( COORDINATES, SOLUTION, PRIMITIVE, VORTICITY, QCRITERION )
OUTPUT_FILES= ( RESTART, PARAVIEW, SURFACE_PARAVIEW, CSV )
